Circuit: * D:\Projects\nixie-backplane\sims\555timer.asc

Direct Newton iteration for .op point succeeded.

Date: Sat Jul 06 15:56:52 2019
Total elapsed time: 0.072 seconds.

tnom = 27
temp = 27
method = modified trap
totiter = 9124
traniter = 9096
tranpoints = 2508
accept = 2152
rejected = 356
matrix size = 15
fillins = 0
solver = Normal
Matrix Compiler1: 514 bytes object code size  0.2/0.1/[0.0]
Matrix Compiler2: off  [0.1]/0.1/0.1

