Circuit: * D:\Projects\nixie-backplane\sims\combined.asc

Direct Newton iteration for .op point succeeded.

Date: Sat Jul 27 18:33:34 2019
Total elapsed time: 0.705 seconds.

tnom = 27
temp = 27
method = modified trap
totiter = 274598
traniter = 274570
tranpoints = 56910
accept = 43085
rejected = 13825
matrix size = 23
fillins = 2
solver = Normal
Matrix Compiler1: 904 bytes object code size  0.2/0.1/[0.0]
Matrix Compiler2: off  [0.1]/0.2/0.2

