Circuit: * D:\Projects\nixie-backplane\sims\combined.asc

Direct Newton iteration for .op point succeeded.

Date: Sun Jul 07 16:08:53 2019
Total elapsed time: 0.140 seconds.

tnom = 27
temp = 27
method = modified trap
totiter = 32654
traniter = 32626
tranpoints = 7406
accept = 5843
rejected = 1563
matrix size = 23
fillins = 2
solver = Normal
Matrix Compiler1: 904 bytes object code size  0.3/0.1/[0.1]
Matrix Compiler2: off  [0.1]/0.2/0.2

