Circuit: * D:\Projects\nixie-backplane\sims\Draft1.asc

Limiting rise time of source v2 to 0.0006
Limiting fall time of source v2 to 0.0006
Direct Newton iteration for .op point succeeded.

Date: Sun Jul 07 15:43:00 2019
Total elapsed time: 0.041 seconds.

tnom = 27
temp = 27
method = modified trap
totiter = 4748
traniter = 4742
tranpoints = 1632
accept = 1486
rejected = 146
matrix size = 9
fillins = 0
solver = Normal
Matrix Compiler1: 314 bytes object code size  0.1/0.1/[0.0]
Matrix Compiler2: 633 bytes object code size  0.1/0.1/[0.1]

